LAMMPS (16 Mar 2018)
# 1. INITIALIZATION
#allows pair, bond, bending and dihedral interactions
atom_style molecular

  # periodic (video game) boundaries in all cartesian directions
boundary p p s

  # uses real units (instead of units based on pair potential parameters).  List of units used in manual
units real

###########
# 2. ATOM DEFINITION
##########

   ##
   # Read in data from starting configuration file
   ##

#read_data chainconfig.dat

 #use to restart
read_restart RESTART
  orthogonal box = (-400 -400 -0.0371648) to (400 400 123.895)
  196 atoms
  194 bonds
  192 angles
  190 dihedrals

   ##
   # Specify the nature of the bond interactions
   ##

bond_style harmonic
bond_coeff 1 450 1.54

special_bonds lj 0.0 0.0 0.0 angle no dihedral no

angle_style harmonic
angle_coeff 1 62.1  114.00

dihedral_style opls
dihedral_coeff * 1.4110 -0.2708 3.143 0.0

mass * 14.0

pair_style lj/cut 14.0
pair_coeff 1 1 0.0912 3.95 14.0
#pair_modify tail yes

group twistables type 3
6 atoms in group twistables
group freeze type 2
6 atoms in group freeze
fix startend freeze setforce 0.0 0.0 0.0
fix startend0 twistables setforce 0.0 0.0 0.0

################
# 3.  Simulation Settings
###############

neighbor        2.0 bin
neigh_modify    every 1 delay 0 check yes

# Define some variables
variable Lx          equal xhi-xlo   # Ang
variable Ly          equal yhi-ylo   # Ang
variable Lz          equal zhi-zlo   # Ang

variable dz          equal 123.93194371632/30

variable zzlo        equal zlo+0.05  # Ang
variable zzhi        equal zhi  # Ang
variable vol         equal 800*800*123.93194371632
variable TEMP        equal 300.00 # K
variable TThi        equal 320.00 # K
variable TTlo        equal 280.00 # K
variable dt          equal 1.25 # fs

timestep     1.25

variable zlo1      equal 0.0128352418400019+2.7
variable zlo2      equal 0.0128352418400019+8.4
variable zhi1      equal 0.0128352418400019+115.5
variable zhi2      equal 0.0128352418400019+121

# heat layers

region          hot  block  INF INF INF INF 2.71283524184 8.41283524184
region          cold block INF INF INF INF 115.51283524184 121.01283524184
compute         Thot all temp/region hot
compute         Tcold all temp/region cold

# 1st equilibration run
fix             1 all nvt temp 300 300 50
thermo          100
run             8000
  update every 1 steps, delay 0 steps, check yes
Step Temp E_pair E_mol TotEng Press Volume
20000            0    2361.5478    8035.3217     10396.87    -9.355847     79316447
Averages over the last 41 of 81 rows, steps 24000 to 28000:
Temp E_pair E_mol TotEng Press Volume
294.112 2353.4 8059.15 10583.5 -9.36492 7.93164e+07
Loop time of 2.09 on 1 procs for 8000 steps with 196 atoms

velocity        all scale 300
unfix           1

# Second Equilibration
fix             1 all nve
fix             hot all langevin 320 320  50.0 599804  tally yes
fix             cold all langevin 280 280 50.0 27859 tally yes
fix_modify      hot temp Thot
fix_modify      cold temp Tcold

variable        tdiff equal c_Thot-c_Tcold
thermo_style    custom step c_Thot c_Tcold f_hot f_cold v_tdiff
thermo          4000
run             1600000
Step c_Thot c_Tcold f_hot f_cold v_tdiff
28000    341.07851    429.27633           -0           -0   -88.197819
Averages over the last 201 of 401 rows, steps 828000 to 1628000:
c_Thot c_Tcold f_hot f_cold v_tdiff
365.042 317.015 -5825.85 5842.68 48.0264
Loop time of 507.317 on 1 procs for 1600000 steps with 196 atoms

unfix 1

# PRODUCTION

fix             1 all nve
fix             hot all langevin 320 320  50.0 52804  tally yes
fix             cold all langevin 280 280 50.0 297859 tally yes
fix_modify      hot temp Thot
fix_modify      cold temp Tcold

variable        tdiff equal c_Thot-c_Tcold
thermo          4000

dump gigo all atom 40000 dump.cords_xyz.dat
dump_modify gigo scale no
dump vfgigo all custom 4000 dump.velo.dat id vx vy vz fx fy fz

# thermal conductivity calculation
# # reset langevin thermostats to zero energy accumulation
#
compute         ke all ke/atom
variable        temp atom c_ke/1.5/0.0019872

fix             ave all ave/time 100 40 4000 v_tdiff ave running
thermo_style    custom step temp c_Thot c_Tcold f_hot f_cold v_tdiff f_ave

#compute         layers all chunk/atom bin/1d z lower 0.05 units reduced
compute         layers all chunk/atom bin/1d z lower 4.131064790544 units box
fix             2 all ave/chunk  100 40 4000 layers v_temp file profile.langevin

dump mydump2 all xyz 40000 prod-coord.xyz
dump_modify mydump2 element C S S

run             32000000
Step Temp c_Thot c_Tcold f_hot f_cold v_tdiff f_ave
1628000    296.03568    320.67436    425.64451           -0           -0   -104.97015            0
Averages over the last 4001 of 8001 rows, steps 17628000 to 33628000:
Temp c_Thot c_Tcold f_hot f_cold v_tdiff f_ave
282.81 360.842 326.152 -109963 110048 34.6908 37.2969
Loop time of 10254.6 on 1 procs for 32000000 steps with 196 atoms

write_restart FINALCONFIG
